/*--------------------------------*- C++ -*----------------------------------*\
| =========                 |                                                 |
| \\      /  F ield         | foam-extend: Open Source CFD                    |
|  \\    /   O peration     | Version:     4.1                                |
|   \\  /    A nd           | Web:         http://www.foam-extend.org         |
|    \\/     M anipulation  |                                                 |
\*---------------------------------------------------------------------------*/
FoamFile
{
    version     2.0;
    format      ascii;
    class       volScalarField;
    location    "1";
    object      T;
}
// * * * * * * * * * * * * * * * * * * * * * * * * * * * * * * * * * * * * * //

dimensions      [0 0 0 1 0 0 0];

internalField   uniform 434.15;

boundaryField
{
    electrolyteSides
    {
        type            zeroGradient;
    }
    phiI_to_phiE0
    {
        type            calculated;
        value           uniform 0;
    }
    phiI_to_phiE1
    {
        type            calculated;
        value           uniform 0;
    }
}


// ************************************************************************* //
