/*--------------------------------*- C++ -*----------------------------------*\
| =========                 |                                                 |
| \\      /  F ield         | OpenFOAM: The Open Source CFD Toolbox           |
|  \\    /   O peration     | Version:  2.1.x                                 |
|   \\  /    A nd           | Web:      www.OpenFOAM.org                      |
|    \\/     M anipulation  |                                                 |
\*---------------------------------------------------------------------------*/
FoamFile
{
    version     2.0;
    format      ascii;
    class       dictionary;
    location    "constant";
    object      dynamicMeshDict;
}
// * * * * * * * * * * * * * * * * * * * * * * * * * * * * * * * * * * * * * //

dynamicFvMesh loadBalanceDynamicPolyRefinementFvMesh;
//dynamicFvMesh loadBalanceFvMesh;
//dynamicFvMesh dynamicPolyMultiRefinementFvMesh;

dynamicRefineFvMeshCoeffs
{
    // Global refinement configuration

    // Maximum refinement level
    maxRefinementLevel   3;
    refineInterval       30;
    unrefineInterval     90;

    // Separate refinement/unrefinement steps. In case this is switched on,
    // if both refinement and unrefinement should have been performed in a
    // single step, unrefinement is skipped. Switched off by default, meaning
    // that it should be safe to perform both at the same time
    separateUpdates false;

    // Dynamic mesh procedure controls

    // Polyhedral refinement engine controls
    active yes;

    // Maximum number of cells to allow (not strictly controlled)
    maxCells             2000000;

    // Number of buffer layers between refinement levels
    nRefinementBufferLayers        1;

    // Number of buffer layers for unrefinement in order to run away from the
    // region that is getting refined at the same time in order to avoid point
    // level inconsistencies
    nUnrefinementBufferLayers      3;

    // Whether to use edge based consistency check. Needed when one allows more
    // than 2 refinement levels (automatically switched on)
    edgeBasedConsistency           yes;

    refinements
    (
        ref1
        {
            // Refinement-specific configuration

            maxRefinementLevel   3;
            refinementSelection
            {
                // Refines around field interface
                type        interfaceRefinement;
                fieldNames  ( alpha1 );
                innerRefLayers  2;
                outerRefLayers  2;

                // Whether to use cell-point-cell smoothing for selecting
                // refinement candidates. Off by default
                cellPointCellSmoothing on;
            }
        }

        ref2
        {
            // Refinement-specific configuration

            maxRefinementLevel   1;
            refinementSelection
            {
                type        fieldBoundsRefinement;
                fieldName   alpha1;
                lowerBound  0.99;
                upperBound  1.01;

                // Whether to use cell-point-cell smoothing for selecting
                // refinement candidates. Off by default
                cellPointCellSmoothing off;
            }
        }

    );
}

loadBalanceFvMeshCoeffs
{
    // Load Balancing

    imbalanceTrigger 0.2;

    numberOfSubdomains 16;

    method          hierarchical;

    metisCoeffs
    {
        processorWeights (1 1 1 1);
    }

    scotchCoeffs
    {
        processorWeights (1 1 1 1);
    }

    hierarchicalCoeffs
    {
        n       ( 4 4 1 );
        delta   0.001;
        order   xyz;
    }
}

// ************************************************************************* //
