/*--------------------------------*- C++ -*----------------------------------*\
| =========                 |                                                 |
| \\      /  F ield         | OpenFOAM: The Open Source CFD Toolbox           |
|  \\    /   O peration     | Version:  2.3.1                                 |
|   \\  /    A nd           | Web:      www.OpenFOAM.org                      |
|    \\/     M anipulation  |                                                 |
\*---------------------------------------------------------------------------*/
FoamFile
{
    version     2.0;
    format      ascii;
    class       polyBoundaryMesh;
    location    "constant/solid/polyMesh";
    object      boundary;
}
// * * * * * * * * * * * * * * * * * * * * * * * * * * * * * * * * * * * * * //

3
(
    solid_to_inner
    {
        type            patch; //mappedPatch; //mappedWall;
        inGroups        
2
(
patch //wall
mappedPatch
)
;
        nFaces          184216;
        startFace       1259402;
        sampleMode      nearestPatchFace;
        sampleRegion    inner;
        samplePatch     inner_to_solid;
    }
    solid_to_outer
    {
        type            patch; //mappedPatch; //mappedWall;
        inGroups        
2
(
patch //wall
mappedPatch
)
;
        nFaces          254056;
        startFace       1443618;
        sampleMode      nearestPatchFace;
        sampleRegion    outer;
        samplePatch     outer_to_solid;
    }
    solid_to_domain1
    {
        type            patch; //mappedPatch; //mappedWall;
        inGroups        
2
(
patch //wall
mappedPatch
)
;
        nFaces          9468;
        startFace       1697674;
        sampleMode      nearestPatchFace;
        sampleRegion    domain1;
        samplePatch     domain1_to_solid;
    }
)

// ************************************************************************* //
