/*--------------------------------*- C++ -*----------------------------------*\
| =========                 |                                                 |
| \\      /  F ield         | foam-extend: Open Source CFD                    |
|  \\    /   O peration     | Version:     4.1                                |
|   \\  /    A nd           | Web:         http://www.extend-project.de       |
|    \\/     M anipulation  |                                                 |
\*---------------------------------------------------------------------------*/

FoamFile
{
    version         2.0;
    format          ascii;
    class           volScalarField;
    object          xH2;
}

// * * * * * * * * * * * * * * * * * * * * * * * * * * * * * * * * * * * * * //


dimensions      [0 0 0 0 0 0 0];

internalField   uniform 0.81;

boundaryField
{
    topAndBottom
    {
        type                    empty;
    }
    left
    {
        type                    regionCoupledScalarJump;
        k			"DEffH2";
        relax			0.01;
       	neighbourRegionName     anodeGDL;
       	neighbourPatchName      right;
       	neighbourFieldName      xH2;
	secondOrder		false;
	nonOrthCorr		true;
       	value                   $internalField;
    }
    right
    {
        type			zeroGradient;
    }
    frontAndBack
    {
        type            	empty;
    }
}

// ************************************************************************* //
