/*--------------------------------*- C++ -*----------------------------------*\
| =========                 |                                                 |
| \\      /  F ield         | OpenFOAM: The Open Source CFD Toolbox           |
|  \\    /   O peration     | Version:  2.3.1                                 |
|   \\  /    A nd           | Web:      www.OpenFOAM.org                      |
|    \\/     M anipulation  |                                                 |
\*---------------------------------------------------------------------------*/
FoamFile
{
    version     2.0;
    format      ascii;
    class       polyBoundaryMesh;
    location    "constant/InnerFluid/polyMesh";
    object      boundary;
}
// * * * * * * * * * * * * * * * * * * * * * * * * * * * * * * * * * * * * * //

4
(
    outlet
    {
        type            patch;
        nFaces          828;
        startFace       1196787;
    }
    inlet
    {
        type            patch;
        nFaces          828;
        startFace       1197615;
    }
    inner_to_solid
    {
        type            patch; //mappedPatch; //mappedWall;
        inGroups        
2
(
patch //wall
mappedPatch
)
;
        nFaces          184216;
        startFace       1198443;
        sampleMode      nearestPatchFace;
        sampleRegion    solid;
        samplePatch     solid_to_inner;
    }
    inner_to_domain1
    {
        type            patch; //mappedPatch; //mappedWall;
        inGroups        
2
(
patch //wall
mappedPatch
)
;
        nFaces          20798;
        startFace       1382659;
        sampleMode      nearestPatchFace;
        sampleRegion    domain1;
        samplePatch     domain1_to_inner;
    }
)

// ************************************************************************* //
