/*--------------------------------*- C++ -*----------------------------------*\
| =========                 |                                                 |
| \\      /  F ield         | foam-extend: Open Source CFD                    |
|  \\    /   O peration     | Version:     3.1                                |
|   \\  /    A nd           | Web:         http://www.extend-project.de       |
|    \\/     M anipulation  |                                                 |
\*---------------------------------------------------------------------------*/
FoamFile
{
    version     2.0;
    format      ascii;
    class       dictionary;
    object      createPatchDict;
}
// * * * * * * * * * * * * * * * * * * * * * * * * * * * * * * * * * * * * * //

// Tolerance used in matching faces. Absolute tolerance is span of
// face times this factor. To load incorrectly matches meshes set this
// to a higher value.
matchTolerance 1E-3;

// Do a synchronisation of coupled points after creation of any patches.
// Note: this does not work with points that are on multiple coupled patches
//       with transformations.
pointSync true;

// Patches to create.
patchInfo
(
    {
        name interfaceShadow;
        dictionary
        {
            type            patch;
        }
        constructFrom patches;
        patches (freeSurfaceShadow);
    }

    {
        name interface;
        dictionary
        {
            type            patch;
        }
        constructFrom patches;
        patches (freeSurface);
    }
);
