/*---------------------------------------------------------------------------*\
| =========                 |                                                 |
| \\      /  F ield         | OpenFOAM: The Open Source CFD Toolbox           |
|  \\    /   O peration     | Version:  1.5                                   |
|   \\  /    A nd           | Web:      http://www.openfoam.org               |
|    \\/     M anipulation  |                                                 |
\*---------------------------------------------------------------------------*/

FoamFile
{
    version         2.0;
    format          ascii;
    class           volScalarField;
    object          sigma;
}

// * * * * * * * * * * * * * * * * * * * * * * * * * * * * * * * * * * * * * //


dimensions      [-1 -3 3 0 0 2 0];

internalField   uniform 1; // uniform (0.566711 0 0);

boundaryField
{

    interconnect1
    {
        type            zeroGradient;
    }

	phiEA_to_phi0
    {
        type            zeroGradient;
    }
    
	phiEA_to_phiI0
    {
        type            zeroGradient;
    }
    
    phiEA_to_phi0
    {
        type            zeroGradient;
    }
    
    interconnectSides
    {
        type            zeroGradient;
    }
    
	cathodeSides
    {
        type            zeroGradient;
    }
    
	anodeSides
    {
        type            zeroGradient;
    }
    
	phiEA_to_phi
    {
        type            zeroGradient;
    }
}


// ************************************************************************* //
