/*--------------------------------*- C++ -*----------------------------------*\
| =========                 |                                                 |
| \\      /  F ield         | OpenFOAM: The Open Source CFD Toolbox           |
|  \\    /   O peration     | Version:  1.3                                   |
|   \\  /    A nd           | Web:      http://www.openfoam.org               |
|    \\/     M anipulation  |                                                 |
\*---------------------------------------------------------------------------*/

FoamFile
{
    version         2.0;
    format          ascii;
    class           dictionary;
    object          transportProperties;
}

// * * * * * * * * * * * * * * * * * * * * * * * * * * * * * * * * * * * * * //


fluidA
{
    // Density 
    rho             rho [1 -3 0 0 0 0 0] 1.0;

    // Viscosity
    mu              mu [ 1 -1 -1 0 0 0 0 ] 1.85e-05;
}


fluidB
{
    // Density 
    rho             rho [1 -3 0 0 0 0 0] 1.0;

    // Vicosity
    mu              mu [ 1 -1 -1 0 0 0 0 ] 5e-04;
}

// ************************************************************************* //
