/*--------------------------------*- C++ -*----------------------------------*\
| =========                 |                                                 |
| \\      /  F ield         | foam-extend: Open Source CFD                    |
|  \\    /   O peration     | Version:     3.1                                |
|   \\  /    A nd           | Web:         http://www.extend-project.de       |
|    \\/     M anipulation  |                                                 |
\*---------------------------------------------------------------------------*/
FoamFile
{
    version     2.0;
    format      ascii;
    class       dictionary;
    object      dynamicMeshDict;
}
// * * * * * * * * * * * * * * * * * * * * * * * * * * * * * * * * * * * * * //

/*dynamicFvMesh staticFvMesh;*/

dynamicFvMesh interfaceTrackingFvMesh;

solver velocityLaplacian;

diffusivity quadratic inverseDistance 1(interfaceShadow);

frozenDiffusion yes;

twoDMotion yes;

distancePatches 1 (interfaceShadow);


interfaceTrackingFvMeshCoeffs
{
    movingSurfacePatches
    (
/*        interfaceShadow*/
/*        {*/
/*            neighbourPatch   interface;*/
/*            neighbourMesh    fluidA;*/

/*            normalMotionDir yes;*/

/*            // motion direction if normalMotionDir is no*/
/*            motionDir (0 1 0);*/

/*            fixedSurfacePatches 0();*/

/*            pointNormalsCorrectionPatches 0();*/

/*            GGICoeffs{}*/
/*        }*/
    );
}


// ************************************************************************* //
