/*--------------------------------*- C++ -*----------------------------------*\
| =========                 |                                                 |
| \\      /  F ield         | OpenFOAM: The Open Source CFD Toolbox           |
|  \\    /   O peration     | Version:  1.5                                   |
|   \\  /    A nd           | Web:      http://www.OpenFOAM.org               |
|    \\/     M anipulation  |                                                 |
\*---------------------------------------------------------------------------*/
FoamFile
{
    version     2.0;
    format      ascii;
    class       dictionary;
    object      fvSolution;
}
// * * * * * * * * * * * * * * * * * * * * * * * * * * * * * * * * * * * * * //

solvers
{
    T
    {
        solver          PCG;
        preconditioner  DIC;
        tolerance       1e-15;
        relTol          0;
        minIter         2;
        maxIter         50;
    };
    Tcoupled
    {
        solver           BiCGStab;
        
        preconditioner      
        {                   
            preconditioner  Cholesky;
        }

        tolerance        1e-15;
        relTol           0;

        minIter          0;
        maxIter          200;
    };
    phiP
    {
        solver          PCG;
        preconditioner  DIC;
        tolerance       1e-15;
        relTol          0;
        minIter         2;
        maxIter         50;
    };
    phiPcoupled
    {
        solver           BiCGStab;
        
        preconditioner      
        {                   
            preconditioner  Cholesky;
        }

        tolerance        1e-15;
        relTol           0;

        minIter          0;
        maxIter          200;
    };
    lambda
    {
        solver          PCG;
        preconditioner  DIC;
        tolerance       1e-15;
        relTol          0;
        minIter         2;
        maxIter         50;
    };
    lambdacoupled
    {
        solver           BiCGStab;
        
        preconditioner      
        {                   
            preconditioner  Cholesky;
        }

        tolerance        1e-15;
        relTol           0;

        minIter          0;
        maxIter          200;
    };
}

SIMPLE
{
    nNonOrthogonalCorrectors 3;

    residualControl
    {
        T               1e-7;
	phiP		1e-7;
	lambda		1e-7;
    }
}

relaxationFactors
{
	T	1.0;
	phiP	1.0;
	lambda	1.0;
}



// ************************************************************************* //
