/*--------------------------------*- C++ -*----------------------------------*\
| =========                 |                                                 |
| \\      /  F ield         | foam-extend: Open Source CFD                    |
|  \\    /   O peration     | Version:     4.1                                |
|   \\  /    A nd           | Web:         http://www.foam-extend.org         |
|    \\/     M anipulation  |                                                 |
\*---------------------------------------------------------------------------*/
FoamFile
{
    version     2.0;
    format      ascii;
    class       dictionary;
    location    "system";
    object      fvSolution;
}
// * * * * * * * * * * * * * * * * * * * * * * * * * * * * * * * * * * * * * //

solvers
{
    p
    {
        solver          PCG;
        preconditioner  DIC;
        tolerance       1e-06;
        relTol          0;
    }

    pcorr
    {
        solver          PCG;
        preconditioner  DIC;
        tolerance       1e-06;
        relTol          0;
    }

    U
    {
        solver          BiCGStab;
        preconditioner  DILU;
        tolerance       1e-05;
        relTol          0;
    }
}

PISO
{
    pRefPoint (0 0 0);
    pRefValue 0;
}

PIMPLE
{
    nCorrectors                 2;
    nNonOrthogonalCorrectors    1;

    pRefPoint (0 0 0);
    pRefValue 0;

    // residualControl
    // {
    //     p
    //     {
    //         relTol         0;
    //         tolerance      0;
    //     }

    //     U
    //     {
    //         relTol         0;
    //         tolerance      0;
    //     }
    // }
}

relaxationFactors
{}

hasSpacePatch yes;


// ************************************************************************* //