/*--------------------------------*- C++ -*----------------------------------*\
| =========                 |                                                 |
| \\      /  F ield         | OpenFOAM: The Open Source CFD Toolbox           |
|  \\    /   O peration     | Version:  1.5                                   |
|   \\  /    A nd           | Web:      http://www.OpenFOAM.org               |
|    \\/     M anipulation  |                                                 |
\*---------------------------------------------------------------------------*/
FoamFile
{
    version     2.0;
    format      ascii;
    class       dictionary;
    object      fvSolution;
}
// * * * * * * * * * * * * * * * * * * * * * * * * * * * * * * * * * * * * * //

solvers
{
//partitioned 
    T
    {
/*        solver              GAMG;
        tolerance           1e-7;
        relTol              0;
        smoother            GaussSeidel;
        cacheAgglomeration  true;
        nCellsInCoarsestLevel   10;
        agglomerator    	faceAreaPair;
        mergeLevels     	1;
        minIter         	2;
        maxIter         	50;
*/
        relTol 0.0;
        smoother GaussSeidel;
        tolerance 1e-05;
        solver smoothSolver;
    };
//monolithic
    Tcoupled
    {
        solver           BiCGStab;
        
        preconditioner      
        {                   
            preconditioner  Cholesky;
        }

        tolerance        1e-15;
        relTol           0;

        minIter          0;
        maxIter          200;
    };
    U 
    {
        relTol 0.0;
        smoother GaussSeidel;
        tolerance 1e-05;
        solver smoothSolver;
    }
    p
    {
//        solver          BICCG;
//        preconditioner  DILU;
//        tolerance       1e-12;
//        relTol          0;
/*        solver              GAMG;
        tolerance           1e-7;
        relTol              0;
        smoother            GaussSeidel;
        cacheAgglomeration  true;
        nCellsInCoarsestLevel   10;
        agglomerator    	faceAreaPair;
        mergeLevels     	1;
*/        
        relTol 0.0;
        cacheAgglomeration on;
        nPreSweeps 0;
        agglomerator faceAreaPair;
        nCellsInCoarsestLevel 10;
        solver GAMG;
        nPostSweeps 0;
        mergeLevels 1;
        smoother GaussSeidel;
        tolerance 1e-06;
    }
    pcorr
    {
/*        solver          BiCGStab;
        preconditioner  DILU;
        tolerance       1e-12;
        relTol          0;
*/
/*        solver              GAMG;
        tolerance           1e-7;
        relTol              0;
        smoother            GaussSeidel;
        cacheAgglomeration  true;
        nCellsInCoarsestLevel   10;
        agglomerator    	faceAreaPair;
        mergeLevels     	1;
*/        
        relTol 0.0;
        cacheAgglomeration on;
        nPreSweeps 0;
        agglomerator faceAreaPair;
        nCellsInCoarsestLevel 10;
        solver GAMG;
        nPostSweeps 0;
        mergeLevels 1;
        smoother GaussSeidel;
        tolerance 1e-06;
    }
}

PISO
{
    pRefPoint (0 0 0); 
    pRefValue 0;
}

PIMPLE
{
    // p-U coupling
    nOuterCorrectors            2; // SIMPLEC loops
    nCorrectors                 2; // PISO loops
    nNonOrthogonalCorrectors    0; //1;

    residualControl
    {
        p
        {
            relTol         0;
            tolerance      0;
        }

        U
        {
            relTol         0;
            tolerance      0;
        }
    }
}

relaxationFactors
{
	T	0.7; //1.0;
	U	0.7; 	
	p	0.3; 
}



// ************************************************************************* //
