/*--------------------------------*- C++ -*----------------------------------*\
| =========                 |                                                 |
| \\      /  F ield         | OpenFOAM: The Open Source CFD Toolbox           |
|  \\    /   O peration     | Version:  1.3                                   |
|   \\  /    A nd           | Web:      http://www.openfoam.org               |
|    \\/     M anipulation  |                                                 |
\*---------------------------------------------------------------------------*/

FoamFile
{
    version         2.0;
    format          ascii;
    class           dictionary;
    object          transportProperties;
}

// * * * * * * * * * * * * * * * * * * * * * * * * * * * * * * * * * * * * * //


// Density 
rho             rho [1 -3 0 0 0 0 0] 1.226;

// specific volume (1/rho)
v             v [-1 3 0 0 0 0 0] 0.81566;

// Vicosity
mu              mu [ 1 -1 -1 0 0 0 0 ] 1.78e-5; 

// ************************************************************************* //
