/*--------------------------------*- C++ -*----------------------------------*\
| =========                 |                                                 |
| \\      /  F ield         | OpenFOAM Extend Project: Open source CFD        |
|  \\    /   O peration     | Version:  1.6-ext                               |
|   \\  /    A nd           | Web:      www.extend-project.de                 |
|    \\/     M anipulation  |                                                 |
\*---------------------------------------------------------------------------*/
FoamFile
{
    version     2.0;
    format      ascii;
    class       tetPointVectorField;
    location    "0";
    object      motionU;
}
// * * * * * * * * * * * * * * * * * * * * * * * * * * * * * * * * * * * * * //

dimensions      [0 1 -1 0 0 0 0];

internalField   uniform (0 0 0);

boundaryField
{
   inlet
    {
        type            fixedValue;
        value           uniform (0 0 0);
    }
    outlet
    {
        type            fixedValue;
        value           uniform (0 0 0);
    }
    space
    {
        type            fixedValue;
        value           uniform (0 0 0);
    }
    Wall
    {
        type            fixedValue;
        value           uniform (0 0 0);
    }
    interfaceShadow
    {
        type            fixedValue;
        value           uniform (0 0 0);
    }
    "proc.*"
    {
    	type            processor;
    	value           uniform (0 0 0);
    }
    global
    {
        type            global;
    }
    lowerWedge
    {
	type		wedge;
    }
    upperWedge
    {
	type		wedge;
    }
    centerline
    {
	type		symmetryPlane;
    }
}


// ************************************************************************* //
