/*--------------------------------*- C++ -*----------------------------------*\
| =========                 |                                                 |
| \\      /  F ield         | OpenFOAM: The Open Source CFD Toolbox           |
|  \\    /   O peration     | Version:  1.5                                   |
|   \\  /    A nd           | Web:      http://www.OpenFOAM.org               |
|    \\/     M anipulation  |                                                 |
\*---------------------------------------------------------------------------*/
FoamFile
{
    version     2.0;
    format      ascii;
    class       dictionary;
    object      regionInterfaceProperties;
}
// * * * * * * * * * * * * * * * * * * * * * * * * * * * * * * * * * * * * * //

partitionedCoupledPatches
(
    innersolid
    {
        interfaceType defaultInterface;

        coupledPatchPair
        (
            (inner inner_to_solid)
            (solid solid_to_inner)
        );

        coupledFields
        (
            T
        );
        
        defaultInterfaceCoeffs
        {}
    }
    
    outersolid
    {
        interfaceType defaultInterface;

        coupledPatchPair
        (
            (outer outer_to_solid)
            (solid solid_to_outer)
        );

        coupledFields
        (
            T
        );
        
        defaultInterfaceCoeffs
        {}
    }
);

monolithicCoupledPatches
(

);

curvatureCorrectedSurfacePatches 0();

interpolatorUpdateFrequency 1;

interfaceTransferMethod GGI; // directMap;

directMapCoeffs
{}

GGICoeffs
{}

// ************************************************************************* //
