/*--------------------------------*- C++ -*----------------------------------*\
| =========                 |                                                 |
| \\      /  F ield         | OpenFOAM: The Open Source CFD Toolbox           |
|  \\    /   O peration     | Version:  2.3.1                                 |
|   \\  /    A nd           | Web:      www.OpenFOAM.org                      |
|    \\/     M anipulation  |                                                 |
\*---------------------------------------------------------------------------*/
FoamFile
{
    version     2.0;
    format      ascii;
    class       volScalarField;
    location    "0/solid";
    object      T;
}
// * * * * * * * * * * * * * * * * * * * * * * * * * * * * * * * * * * * * * //

dimensions      [0 0 0 1 0 0 0];

internalField   uniform 300;

boundaryField
{
    solid_to_inner
    {
        type                    chtRcTemperature;
        radiation               off;
        K                       k;
        remoteField             T;
        value                   $internalField;     
    }
    solid_to_outer
    {
        type                    chtRcTemperature;
        radiation               off;
        K                       k;
        remoteField             T;
        value                   $internalField;   
    }
    solid_to_domain1
    {
        type            zeroGradient;
    }
}


// ************************************************************************* //
