/*--------------------------------*- C++ -*----------------------------------*\
| =========                 |                                                 |
| \\      /  F ield         | foam-extend: Open Source CFD                    |
|  \\    /   O peration     | Version:     3.1                                |
|   \\  /    A nd           | Web:         http://www.extend-project.de       |
|    \\/     M anipulation  |                                                 |
\*---------------------------------------------------------------------------*/
FoamFile
{
    version     2.0;
    format      ascii;
    class       dictionary;
    object      blockMeshDict;
}
// * * * * * * * * * * * * * * * * * * * * * * * * * * * * * * * * * * * * * //




//dummy z direction
 
 

 //inlet
 //L outlet

 //d
 //H





// * * * * * * * * * * * * * * * * * * * * * * * * * * * * * * * * * * * * * //

vertices
(
    (0 0.0 0)
    (40.0 0.0 0)
    (40.0 10.0 0)
    (0 10.0 0)
    (0 0.0 0.001)
    (40.0 0.0 0.001)
    (40.0 10.0 0.001)
    (0 10.0 0.001)
);

blocks
(
    hex (0 1 2 3 4 5 6 7) (300 25 1) simpleGrading (1 1 1)
);

edges
(
);

patches
(
    empty inletOutlet
    (
        (0 4 7 3)
        (2 6 5 1)
    )
    wall interfaceShadow
    (
        (3 7 6 2)
    )
    empty backFront
    (
        (4 5 6 7)
        (0 3 2 1) 
    )
);

mergePatchPairs
(
);

// ************************************************************************* //
