/*--------------------------------*- C++ -*----------------------------------*\
| =========                 |                                                 |
| \\      /  F ield         | foam-extend: Open Source CFD                    |
|  \\    /   O peration     | Version:     4.1                                |
|   \\  /    A nd           | Web:         http://www.foam-extend.org         |
|    \\/     M anipulation  |                                                 |
\*---------------------------------------------------------------------------*/
FoamFile
{
    version     2.0;
    format      ascii;
    class       dictionary;
    object      fvSolution;
}
// * * * * * * * * * * * * * * * * * * * * * * * * * * * * * * * * * * * * * //

solvers
{
    "D|DD"
    {
        solver          PCG;
        preconditioner  FDIC;
        tolerance       1e-09;
        relTol          0.1;
    }
}

relaxationFactors
{
    //DEqn     0.999;
    //DDEqn    0.999;
    //D        0.9;
    //DD       0.5;

    fields
    {
        "DD|D" 0.9;
    }
}

PICARD
{
    D
    {
        maxCorr 1000;
        tolerance       1e-9;
        relTol          1e-09;
        infoFrequency   100;
    }
}

// ************************************************************************* //
