/*--------------------------------*- C++ -*----------------------------------*\
| =========                 |                                                 |
| \\      /  F ield         | OpenFOAM: The Open Source CFD Toolbox           |
|  \\    /   O peration     | Version:  1.3                                   |
|   \\  /    A nd           | Web:      http://www.openfoam.org               |
|    \\/     M anipulation  |                                                 |
\*---------------------------------------------------------------------------*/

FoamFile
{
    version         2.0;
    format          ascii;
    class           dictionary;
    object          transportProperties;
}

// * * * * * * * * * * * * * * * * * * * * * * * * * * * * * * * * * * * * * //


fluid
{
    // Jump coefficient
    K              K [ 0 0 0 0 0 0 0 ] 0.03333333;
}


solid
{
    // Heat conductivity
    k              k [ 0 2 -1 0 0 0 0 ] 3e-5;
}

// ************************************************************************* //
