/*--------------------------------*- C++ -*----------------------------------*\
| =========                 |                                                 |
| \\      /  F ield         | foam-extend: Open Source CFD                    |
|  \\    /   O peration     | Version:     4.1                                |
|   \\  /    A nd           | Web:         http://www.foam-extend.org         |
|    \\/     M anipulation  |                                                 |
\*---------------------------------------------------------------------------*/
FoamFile
{
    version     2.0;
    format      ascii;
    class       volVectorField;
    location	"0";
	object		U;
}
// * * * * * * * * * * * * * * * * * * * * * * * * * * * * * * * * * * * * * //
dimensions		[0 1 -1 0 0 0 0];
internalField	uniform (0 0 0);

boundaryField
{
	impellerWall
	{
		type        movingWallVelocity;
        value       uniform (0 0 0);
	}

	baffleWall
	{
		type		fixedValue;
		value		uniform (0 0 0);
	}

	blade
	{
		type		fixedValue;
		value		uniform (0 0 0);
	}

	substrate
	{
		type		fixedValue; //deg/s * 0.000174533; v=2*pi*r*cycle/s
		value		uniform (-0.698132 0 0);
	}

	insideSlider
	{
		type		ggi;
		value		$internalField;
	}

	outsideSlider
	{
		type		ggi;
		value		$internalField;
	}
	
	atmosphere
	{
		type        pressureInletOutletVelocity; //fluxCorrectedVelocity;
        phi             phi;
        value           uniform (0 0 0);
	}

	frontAndBack
	{
		type		empty;
	}
}

// * * * * * * * * * * * * * * * * * * * * * * * * * * * * * * * * * * * * * //
