/*--------------------------------*- C++ -*----------------------------------*\
| =========                 |                                                 |
| \\      /  F ield         | foam-extend: Open Source CFD                    |
|  \\    /   O peration     | Version:     4.1                                |
|   \\  /    A nd           | Web:         http://www.foam-extend.org         |
|    \\/     M anipulation  |                                                 |
\*---------------------------------------------------------------------------*/
FoamFile
{
    version     2.0;
    format      ascii;
    class       polyBoundaryMesh;
    location    "constant/polyMesh";
    object      boundary;
}
// * * * * * * * * * * * * * * * * * * * * * * * * * * * * * * * * * * * * * //

5
(
    leftWall
    {
        type            patch;
        nFaces          78;
        startFace       7391;
    }
    rightWall
    {
        type            patch;
        nFaces          78;
        startFace       7469;
    }
    lowerWall
    {
        type            patch;
        nFaces          96;
        startFace       7547;
    }
    atmosphere
    {
        type            patch;
        nFaces          78;
        startFace       7643;
    }
    defaultFaces
    {
        type            empty;
        nFaces          5272;
        startFace       7721;
    }
)


// ************************************************************************* //
