/*--------------------------------*- C++ -*----------------------------------*\
| =========                 |                                                 |
| \\      /  F ield         | OpenFOAM: The Open Source CFD Toolbox           |
|  \\    /   O peration     | Version:  1.5                                   |
|   \\  /    A nd           | Web:      http://www.OpenFOAM.org               |
|    \\/     M anipulation  |                                                 |
\*---------------------------------------------------------------------------*/
FoamFile
{
    version     2.0;
    format      ascii;
    class       dictionary;
    object      fvSolution;
}
// * * * * * * * * * * * * * * * * * * * * * * * * * * * * * * * * * * * * * //

solvers
{
    "D|DD"
    {
        solver          PCG;
        preconditioner  FDIC;
        tolerance       1e-09;
        relTol          0.1;
    }
}

relaxationFactors
{
    // Under-relaxating the DD equation by 0.99-0.9999 can improve convergence in
    // some cases, in particular when there are solidContact boundaries
    equations
    {
        //D   0.999;
    }

    // Under-relaxating the DD field by 0.1-0.9 can improve convergence in some
    // cases
    fields
    {
        D      0.7;
    }
}

PICARD
{
    D
    {
        maxCorr 1000;
        tolerance       1e-09;
        relTol          1e-7;
        infoFrequency   100;
    }
}

// ************************************************************************* //
