/*--------------------------------*- C++ -*----------------------------------*\
| =========                 |                                                 |
| \\      /  F ield         | foam-extend: Open Source CFD                    |
|  \\    /   O peration     | Version:     4.1                                |
|   \\  /    A nd           | Web:         http://www.foam-extend.org         |
|    \\/     M anipulation  |                                                 |
\*---------------------------------------------------------------------------*/
FoamFile
{
    version     2.0;
    format      ascii;
    class       dictionary;
    location    "constant";
    object      dynamicMeshDict;
}
// * * * * * * * * * * * * * * * * * * * * * * * * * * * * * * * * * * * * * //

dynamicFvMesh   dynamicPolyMultiRefinementFvMesh;

dynamicRefineFvMeshCoeffs
{
    maxRefinementLevel 1;
    refineInterval  1;
    unrefineInterval 1;
    separateUpdates false;
    active          yes;
    maxCells        2000000;
    nRefinementBufferLayers 1;
    nUnrefinementBufferLayers 3;
    edgeBasedConsistency yes;
    refinements     ( basedOnAlpha0 { maxRefinementLevel 1 ; refinementSelection { type fieldBoundsRefinement ; fieldName alpha0 ; lowerBound 0.499 ; upperBound 0.501 ; cellPointCellSmoothing on ; } } basedOnAlpha1 { maxRefinementLevel 2 ; refinementSelection { type interfaceRefinement ; fieldNames ( alpha1 ) ; innerRefLayers 1 ; outerRefLayers 1 ; cellPointCellSmoothing on ; } } );
}


// ************************************************************************* //
