/*--------------------------------*- C++ -*----------------------------------*\
| =========                 |                                                 |
| \\      /  F ield         | OpenFOAM: The Open Source CFD Toolbox           |
|  \\    /   O peration     | Version:  1.5                                   |
|   \\  /    A nd           | Web:      http://www.OpenFOAM.org               |
|    \\/     M anipulation  |                                                 |
\*---------------------------------------------------------------------------*/
FoamFile
{
    version     2.0;
    format      ascii;
    class       dictionary;
    object      controlDict;
}
// * * * * * * * * * * * * * * * * * * * * * * * * * * * * * * * * * * * * * //

libs
  (
    "/home/local/CSI/ha13nihi/foam/ha13nihi-4.1/lib/linux64GccDPInt32Opt/libcoupledFvPatchBCs.so"
  );
  
applicationClass multiRegionFoam;

startFrom latestTime;

startTime 0;

stopAt endTime;

endTime 1.0;

deltaT 1e-06; 

writeControl adjustableRunTime;

writeInterval 0.1;

cycleWrite 0; 

writeFormat ascii;

writePrecision 16;

writeCompression uncompressed;

timeFormat general;

timePrecision 12;

runTimeModifiable yes;

adjustTimeStep yes;

maxCo 0.1; 

maxDeltaT 1e-05; 

minDeltaT 5e-07; 	

/*
functions
{
    testing
    {
        type writeObjects;
        functionObjectLibs ( "libutilityFunctionObjects.so" );
        objectNames ("bananas");
        outputControl     outputTime;
    }
}
*/
// ************************************************************************* //
