/*--------------------------------*- C++ -*----------------------------------*\
| =========                 |                                                 |
| \\      /  F ield         | foam-extend: Open Source CFD                    |
|  \\    /   O peration     | Version:     4.1                                |
|   \\  /    A nd           | Web:         http://www.foam-extend.org         |
|    \\/     M anipulation  |                                                 |
\*---------------------------------------------------------------------------*/
FoamFile
{
    version     2.0;
    format      ascii;
    class       faBoundaryMesh;
    location    "constant/faMesh";
    object      faBoundary;
}
// * * * * * * * * * * * * * * * * * * * * * * * * * * * * * * * * * * * * * //

2
(
    topAndBottom
    {
        type            empty;
        edgeLabels      List<label> 2(0 2);
        ngbPolyPatchIndex 0;
    }
    frontAndBack
    {
        type            empty;
        edgeLabels      List<label> 2(1 3);
        ngbPolyPatchIndex 3;
    }
)

// ************************************************************************* //
