/*--------------------------------*- C++ -*----------------------------------*\
| =========                 |                                                 |
| \\      /  F ield         | OpenFOAM: The Open Source CFD Toolbox           |
|  \\    /   O peration     | Version:  2.1.x                                 |
|   \\  /    A nd           | Web:      www.OpenFOAM.org                      |
|    \\/     M anipulation  |                                                 |
\*---------------------------------------------------------------------------*/
FoamFile
{
    version     2.0;
    format      ascii;
    class       dictionary;
    location    "constant";
    object      dynamicMeshDict;
}
// * * * * * * * * * * * * * * * * * * * * * * * * * * * * * * * * * * * * * //

dynamicFvMesh   loadBalanceDynamicPolyRefinementFvMesh;

dynamicRefineFvMeshCoeffs
{
    // Global refinement configuration

    // Maximum refinement level
    maxRefinementLevel   3;

    // Refine every refineInterval step
    refineInterval   1;

    // Unrefine every unrefineInterval step
    unrefineInterval 1;

    // Separate refinement/unrefinement steps. In case this is switched on,
    // if both refinement and unrefinement should have been performed in a
    // single step, unrefinement is skipped. Switched off by default, meaning
    // that it should be safe to perform both at the same time
    separateUpdates false;

    // Dynamic mesh procedure controls

    // Polyhedral refinement engine controls
    active yes;

    // Maximum number of cells to allow (not strictly controlled)
    maxCells             2000000;

    // Number of buffer layers between refinement levels
    nRefinementBufferLayers        1;

    // Number of buffer layers for unrefinement in order to run away from the
    // region that is getting refined at the same time in order to avoid point
    // level inconsistencies
    nUnrefinementBufferLayers      4;

    // Whether to use edge based consistency check. Needed when one allows more
    // than 2 refinement levels (automatically switched on)
    edgeBasedConsistency           yes;

    refinements
    (
        unrefineBasedOnAlpha1
        {
            // Refinement-specific configuration

            // Maximum refinement level
            maxRefinementLevel   3;

            // Refine every refineInterval step
            refineInterval   1;

            // Unrefine every unrefineInterval step
            unrefineInterval 1;

            // Separate refinement/unrefinement steps. In case this is switched on,
            // if both refinement and unrefinement should have been performed in a
            // single step, unrefinement is skipped. Switched off by default, meaning
            // that it should be safe to perform both at the same time
            separateUpdates false;

            // Refinement selection criteria
            refinementSelection
            {
                // Refines around field interface
                type        interfaceRefinement;
                fieldName   alpha1;
                innerRefLayers  1;
                outerRefLayers  1;

                // Whether to use cell-point-cell smoothing for selecting refinement
                // candidates. Off by default
                cellPointCellSmoothing on;
            }
        }
    );

    // Load Balancing

    imbalanceTrigger 0.2;

    numberOfSubdomains 4;

    method          scotch;

    scotchCoeffs
    {
        processorWeights (1 1 1 1);
    }

    simpleCoeffs
    {
        n       ( 1 2 2 );
        delta   0.001;
    }
}

// ************************************************************************* //
