/*--------------------------------*- C++ -*----------------------------------*\
| =========                 |                                                 |
| \\      /  F ield         | OpenFOAM: The Open Source CFD Toolbox           |
|  \\    /   O peration     | Version:  1.5                                   |
|   \\  /    A nd           | Web:      http://www.OpenFOAM.org               |
|    \\/     M anipulation  |                                                 |
\*---------------------------------------------------------------------------*/
FoamFile
{
    version     2.0;
    format      ascii;
    class       dictionary;
    object      coupledSolution;
}
// * * * * * * * * * * * * * * * * * * * * * * * * * * * * * * * * * * * * * //

regions
(
    (fluid (transportTemperature icoFluid) )
    (solid (conductTemperature) )
);


partitionedCoupling
{
    maxCoupleIter 6;
}

DNA
{
    T
    {
        maxCoupleIter 3;

        residualControl
        {
            maxJumpRes 1e-4;
            outputJumpResField no;
            maxFluxRes 1e-3;
            outputFluxResField no;
        }
    }
}

// ************************************************************************* //
