/*---------------------------------------------------------------------------*\
| =========                 |                                                 |
| \\      /  F ield         | OpenFOAM: The Open Source CFD Toolbox           |
|  \\    /   O peration     | Version:  1.3                                   |
|   \\  /    A nd           | Web:      http://www.openfoam.org               |
|    \\/     M anipulation  |                                                 |
\*---------------------------------------------------------------------------*/

FoamFile
{
    version         2.0;
    format          ascii;
    class           volScalarField;
    object          T;
}

// * * * * * * * * * * * * * * * * * * * * * * * * * * * * * * * * * * * * * //


dimensions      [0 0 0 1 0 0 0];

internalField   uniform 300;

boundaryField
{
    top
    {
/*        type            symmetryPlane;*/
        type            zeroGradient;
    }
    bottom
    {
        type                    regionCoupleTemperature;
        neighbourRegionName     solid;
        neighbourPatchName      top;
        neighbourFieldName      T;
        K                       1.0;
        value                   $internalField;
    }
    left
    {
        type            		fixedValue;
		value					uniform 310;
    }
    right
    {
        type            		zeroGradient;
    }
    frontAndBack
    {
        type            		empty;
    }
}

// ************************************************************************* //
