 /*--------------------------------*- C++ -*----------------------------------*\
| =========                 |                                                 |
| \\      /  F ield         | foam-extend: Open Source CFD                    |
|  \\    /   O peration     | Version:     4.1                                |
|   \\  /    A nd           | Web:         http://www.foam-extend.org         |
|    \\/     M anipulation  |                                                 |
\*---------------------------------------------------------------------------*/
FoamFile
{
    version     2.0;
    format      ascii;
    class       dictionary;
    location	"system";
	object		controlDict;
}
// * * * * * * * * * * * * * * * * * * * * * * * * * * * * * * * * * * * * * //
libs
(
    "liblduSolvers.so"
    "libbalancedRefinementFvMesh.so"
);

application			interLBDyMFoam;

startFrom			startTime;

startTime			0.00;

stopAt				endTime;

endTime				0.5;

deltaT				1e-06;

writeControl		adjustableRunTime;

writeInterval		0.0001;

cycleWrite			0;

writeFormat			ascii;

writePrecision 		12;

writeCompression 	uncompressed;

timeFormat			general;

timePrecision		12;

runTimeModifiable 	yes;

adjustTimeStep 		yes;

maxCo				0.5;

maxAlphaCo			0.5;

maxDeltaT			1e-05;

InfoSwitches
{
        allowSystemOperations 1;
}


// * * * * * * * * * * * * * * * * * * * * * * * * * * * * * * * * * * * * * //
