/*--------------------------------*- C++ -*----------------------------------*\
| =========                 |                                                 |
| \\      /  F ield         | foam-extend: Open Source CFD                    |
|  \\    /   O peration     | Version:     4.1                                |
|   \\  /    A nd           | Web:         http://www.foam-extend.org         |
|    \\/     M anipulation  |                                                 |
\*---------------------------------------------------------------------------*/
FoamFile
{
    version     2.0;
    format      ascii;
    class       dictionary;
    location	"system";
	object		fvSolution;
}
// * * * * * * * * * * * * * * * * * * * * * * * * * * * * * * * * * * * * * //
solvers
{
    rho
    {}

/*    pcorr*/
/*    {*/
/*        solver          PCG;*/
/*        preconditioner  DIC;*/
/*        tolerance       1e-07;*/
/*        relTol          0.05;*/
/*    }*/
    
    pcorr
    {
        solver          PCG;
        preconditioner
        {
            preconditioner  GAMG;
            tolerance       1e-5;
            relTol          0;
            smoother        DICGaussSeidel;
            nPreSweeps      0;
            nPostSweeps     2;
            nBottomSweeps   2;
            cacheAgglomeration false;
            nCellsInCoarsestLevel 10;
            agglomerator    algebraicPair;
            mergeLevels     1;
        }

        tolerance       1e-05;
        relTol          0;
        maxIter         100;
    }

    pd
    {
        solver          GAMG;
        tolerance       1e-8;
        relTol          0.01;
        smoother        DIC;
        nPreSweeps      0;
        nPostSweeps     2;
        nFinestSweeps   2;
        cacheAgglomeration false;
        nCellsInCoarsestLevel 10;
        agglomerator    algebraicPair;
        mergeLevels     1;
    }

    pdFinal
    {
        solver          PCG;
        preconditioner
        {
            preconditioner  GAMG;
            tolerance       1e-8;
            relTol          0;
            nVcycles        2;
            smoother        DICGaussSeidel;
            nPreSweeps      2;
            nPostSweeps     2;
            nFinestSweeps   2;
            cacheAgglomeration false;
            nCellsInCoarsestLevel 10;
            agglomerator    algebraicPair;
            mergeLevels     1;
        }

        tolerance       1e-8;
        relTol          0;
        maxIter         20;
    }


/*    pd*/
/*    {*/
/*        solver          PCG;*/
/*        preconditioner  DIC;*/
/*        tolerance       1e-07;*/
/*        relTol          0.05;*/
/*    }*/

/*    pdFinal*/
/*    {*/
/*        solver          PCG;*/
/*        preconditioner  DIC;*/
/*        tolerance       1e-07;*/
/*        relTol          0;*/
/*    }*/

    U
    {
        solver          BiCGStab;
        preconditioner  DILU;
        tolerance       1e-06;
        relTol          0;
    }
}

PISO
{
    cAlpha          1;
}
PIMPLE
{

    momentumPredictor yes;
    nOuterCorrectors 1;
    nCorrectors     3;
    nNonOrthogonalCorrectors 1;
    nAlphaCorr      1;
    nAlphaSubCycles 2;

    /*momentumPredictor yes;
    nOuterCorrectors 1;
    nCorrectors     4;
    nNonOrthogonalCorrectors 0;
    nAlphaCorr      1;
    nAlphaSubCycles 3;
    correctPhi      no;*/

    pdRefPoint      (-0.0125 0.005 -0.00005);
    pdRefValue      0;
    pdRefPoint      (-0.0125 0.005 -0.00005);
    pRefValue      0;

    correctPhi      true;
}

/*relaxationFactors
{
    U               1;
}*/

// * * * * * * * * * * * * * * * * * * * * * * * * * * * * * * * * * * * * * //
