/*--------------------------------*- C++ -*----------------------------------*\
| =========                 |                                                 |
| \\      /  F ield         | foam-extend: Open Source CFD                    |
|  \\    /   O peration     | Version:     4.1                                |
|   \\  /    A nd           | Web:         http://www.foam-extend.org         |
|    \\/     M anipulation  |                                                 |
\*---------------------------------------------------------------------------*/
FoamFile
{
    version     2.0;
    format      ascii;
    class       polyBoundaryMesh;
    location    "constant/polyMesh";
    object      boundary;
}
// * * * * * * * * * * * * * * * * * * * * * * * * * * * * * * * * * * * * * //

3
(
    space
    {
        type            patch;
        nFaces          3587;
        startFace       862625;
    }
    interfaceShadow
    {
        type            patch;
        nFaces          3587;
        startFace       866212;
    }
    interface
    {
        type            patch;
        nFaces          3587;
        startFace       869799;
    }
)


// ************************************************************************* //
