/*--------------------------------*- C++ -*----------------------------------*\
| =========                 |                                                 |
| \\      /  F ield         | OpenFOAM: The Open Source CFD Toolbox           |
|  \\    /   O peration     | Version:  1.5                                   |
|   \\  /    A nd           | Web:      http://www.OpenFOAM.org               |
|    \\/     M anipulation  |                                                 |
\*---------------------------------------------------------------------------*/
FoamFile
{
    version     2.0;
    format      ascii;
    class       dictionary;
    object      coupledSolution;
}
// * * * * * * * * * * * * * * * * * * * * * * * * * * * * * * * * * * * * * //

regions
(
    transportTemperature (fluid)
    conductTemperature (solid support)
);

partitionedTypeRegionInterfaces
(
    fluidSolid 
    (
        (((fluid bottom)(solid top)) (T))
    )

    solidSupport
    (
	(((solid bottom)(support top)) (T))
    )
);

monolithicTypeRegionInterfaces
(
    
);

// Assembles a super-mesh
superMeshRegions
(

);

partitionedCoupling
{
    maxCoupleIter 6;
}

// ************************************************************************* //
