/*--------------------------------*- C++ -*----------------------------------*\
| =========                 |                                                 |
| \\      /  F ield         | OpenFOAM: The Open Source CFD Toolbox           |
|  \\    /   O peration     | Version:  1.3                                   |
|   \\  /    A nd           | Web:      http://www.openfoam.org               |
|    \\/     M anipulation  |                                                 |
\*---------------------------------------------------------------------------*/

FoamFile
{
    version         2.0;
    format          ascii;
    class           dictionary;
    object          transportProperties;
}

// * * * * * * * * * * * * * * * * * * * * * * * * * * * * * * * * * * * * * //


// Density - Dimensions: kg/m3
rho             rho [1 -3 0 0 0 0 0] 2100;

// Specific heat - Dimensions: J/kg-K
cv              cv  [0 2 -2 -1 0 0 0] 833;

// Thermal conductivity - Dimensions: W/m-K
k           	    k [1 1 -3 -1 0 0 0] 2;

// ************************************************************************* //
