/*--------------------------------*- C++ -*----------------------------------*\
| =========                 |                                                 |
| \\      /  F ield         | OpenFOAM: The Open Source CFD Toolbox           |
|  \\    /   O peration     | Version:  1.5                                   |
|   \\  /    A nd           | Web:      http://www.openfoam.org               |
|    \\/     M anipulation  |                                                 |
\*---------------------------------------------------------------------------*/

FoamFile
{
    version         2.0;
    format          ascii;
    class           dictionary;
    object          fvSolution;
}

// * * * * * * * * * * * * * * * * * * * * * * * * * * * * * * * * * * * * * //

solvers
{
//     "alpha.*"
//     {
//         nAlphaCorr      1;
//         nAlphaSubCycles 3;
//     }

    p_rgh
    {
        solver           PCG;
        preconditioner   DIC;
        tolerance        1e-09;
        relTol           0.01;
    }

    p_rghFinal
    {
        solver          GAMG;
        tolerance       1e-09;
        relTol          0;
        smoother        GaussSeidel;
        cacheAgglomeration true;
        nCellsInCoarsestLevel 10;
        agglomerator    faceAreaPair;
        mergeLevels     1;
    }
        
//         solver          GAMG;
//         tolerance       1e-10;
//         relTol          0;
//         smoother        GaussSeidel;
//         cacheAgglomeration true;
//         nCellsInCoarsestLevel 10;
//         agglomerator    faceAreaPair;
//         mergeLevels     1;

    T
    {
        solver           BiCGStab;
        preconditioner   DILU;
        tolerance        1e-11;
        relTol           0;
    }
    

    "(e|h).*"
    {
        solver          BICCG;
        preconditioner  DILU;
        tolerance       1e-09;
        relTol          0;
    }

    "U.*"
    {
        solver          BICCG;
        preconditioner  DILU;
        tolerance       1e-09;
        relTol          0;
    }

    Yi
    {
        solver          BICCG;
        preconditioner  DILU;
        tolerance       1e-09;
        relTol          0;
    }
}

PIMPLE
{
//     momentumPredictor yes;
    nOuterCorrectors 1;
    nCorrectors      3;
    nNonOrthogonalCorrectors 0;
//     pRefCell        0;
//     pRefValue       0;

//     faceMomentum     off;
//     consistent yes;
}

relaxationFactors
{
    fields
    {
        default      1;
        p_rgh         0.3;
    }
    equations
    {
        U       0.7;
//         "h.*"        0.99;
        O2       0.99;
        H2O      0.99;
        T	0.98;
    }
}


// ************************************************************************* //
