/*--------------------------------*- C++ -*----------------------------------*\
| =========                 |                                                 |
| \\      /  F ield         | OpenFOAM: The Open Source CFD Toolbox           |
|  \\    /   O peration     | Version:  1.5                                   |
|   \\  /    A nd           | Web:      http://www.openfoam.org               |
|    \\/     M anipulation  |                                                 |
\*---------------------------------------------------------------------------*/

FoamFile
{
    version         2.0;
    format          ascii;
    class           dictionary;
    object          fvSolution;
}

// * * * * * * * * * * * * * * * * * * * * * * * * * * * * * * * * * * * * * //

solvers
{
//     "alpha.*"
//     {
//         nAlphaCorr      1;
//         nAlphaSubCycles 3;
//     }

    p_rgh
    {
        solver          PCG;
        preconditioner
        {
            preconditioner  GAMG;
            tolerance       2e-09;
            relTol          0;
            smoother        DICGaussSeidel;
            nPreSweeps      1;
            nPostSweeps     2;
            nFinestSweeps   2;
            cacheAgglomeration on;
            nCellsInCoarsestLevel 10;
            agglomerator    faceAreaPair;
            mergeLevels     1;
        }
//         solver           PCG;
//         preconditioner   DIC;
//         tolerance        1e-10;
//         relTol           0.01;
    }

    p_rghFinal
    {
        solver          PCG;
        preconditioner
        {
            preconditioner  GAMG;
            tolerance       2e-09;
            relTol          0;
            smoother        DICGaussSeidel;
            nPreSweeps      1;
            nPostSweeps     2;
            nFinestSweeps   2;
            cacheAgglomeration on;
            nCellsInCoarsestLevel 10;
            agglomerator    faceAreaPair;
            mergeLevels     1;
        }
        
//         solver          GAMG;
//         tolerance       1e-10;
//         relTol          0;
//         smoother        GaussSeidel;
//         cacheAgglomeration true;
//         nCellsInCoarsestLevel 10;
//         agglomerator    faceAreaPair;
//         mergeLevels     1;
    }

    "(e|h).*"
    {
        solver          BiCGStab;
        preconditioner  DILU;
        tolerance       1e-09;
        relTol          0;
    }

    "U.*"
    {
        solver          BiCGStab;
        preconditioner  DILU;
        tolerance       1e-09;
        relTol          0;
    }

    Yi
    {
        solver          BiCGStab;
        preconditioner  DILU;
        tolerance       1e-09;
        relTol          0;

        residualAlpha    1.0e-6;
    }
}

PIMPLE
{
    momentumPredictor yes;
    nOuterCorrectors 1;
    nCorrectors      3;
    nNonOrthogonalCorrectors 0;

    faceMomentum     off;
}

relaxationFactors
{
    fields
    {
        default      1;
        p_rgh         0.3;
    }
    equations
    {
        "U.*"        0.7;
        "O2.*"       0.999;
        "H2O.*"      0.999;
    }
}


// ************************************************************************* //
