/*--------------------------------*- C++ -*----------------------------------*\
| =========                 |                                                 |
| \\      /  F ield         | foam-extend: Open Source CFD                    |
|  \\    /   O peration     | Version:     3.1                                |
|   \\  /    A nd           | Web:         http://www.extend-project.de       |
|    \\/     M anipulation  |                                                 |
\*---------------------------------------------------------------------------*/
FoamFile
{
    version     2.0;
    format      ascii;
    class       dictionary;
    object      dynamicMeshDict;
}
// * * * * * * * * * * * * * * * * * * * * * * * * * * * * * * * * * * * * * //

dynamicFvMesh interfaceTrackingFvMesh;

solver laplace; // velocityLaplacian;

diffusivity quadratic;

frozenDiffusion yes;

twoDMotion yes;

motionPlaneNormal (0 0 1);

pseudoSolid
{
    poissonsRatio           0.3;
    nCorrectors             3;
    convergenceTolerance    1e-9;
};

distancePatches 1 (interfaceShadow);

interfaceTrackingFvMeshCoeffs
{
    movingSurfacePatches
    ();
}


// ************************************************************************* //
