/*--------------------------------*- C++ -*----------------------------------*\
| =========                 |                                                 |
| \\      /  F ield         | foam-extend: Open Source CFD                    |
|  \\    /   O peration     | Version:     4.1                                |
|   \\  /    A nd           | Web:         http://www.foam-extend.org         |
|    \\/     M anipulation  |                                                 |
\*---------------------------------------------------------------------------*/
FoamFile
{
    version     2.0;
    format      ascii;
    class       dictionary;
    object      fvSchemes;
}
// * * * * * * * * * * * * * * * * * * * * * * * * * * * * * * * * * * * * * //

ddtSchemes
{
    default backward;
}

gradSchemes
{
    default leastSquares;
}

divSchemes
{
    default none;
    div(phi,U) Gauss linearUpwind cellLimited leastSquares 1;
    div((nuEff*dev2(T(grad(U))))) Gauss linear;
    div((nuEff*dev(T(grad(U))))) Gauss linear;
}

laplacianSchemes
{
    default none;
    laplacian(nuEff,U) Gauss linear corrected;
    laplacian(diffusivity,cellMotionU) Gauss linear corrected;
    laplacian(rAU,pKin) Gauss linear corrected;
}

interpolationSchemes
{
    default linear;
    interpolate(U) skewCorrected linear;
}

snGradSchemes
{
    default corrected;
}

fluxRequired
{
    default no;
    p;
}

// ************************************************************************* //
