/*--------------------------------*- C++ -*----------------------------------*\
| =========                 |                                                 |
| \\      /  F ield         | OpenFOAM: The Open Source CFD Toolbox           |
|  \\    /   O peration     | Version:  1.5                                   |
|   \\  /    A nd           | Web:      http://www.OpenFOAM.org               |
|    \\/     M anipulation  |                                                 |
\*---------------------------------------------------------------------------*/
FoamFile
{
    version     2.0;
    format      ascii;
    class       dictionary;
    object      blockMeshDict;
}
// * * * * * * * * * * * * * * * * * * * * * * * * * * * * * * * * * * * * * //

convertToMeters 1e-6;

vertices        
(
    (25 0 0)
    (35 0 0)
    (35 1 0)
    (25 1 0)
    (25 0 1)
    (35 0 1)
    (35 1 1)
    (25 1 1)
);

blocks          
(
    hex (0 1 2 3 4 5 6 7) (20 1 1) simpleGrading (1 1 1)
);

edges           
(
);

patches         
(
    empty topAndBottom
    (
        (3 7 6 2)
	(1 5 4 0)
    )
    wall left 
    (
        (0 4 7 3)
    )
    wall right
    (
        (2 6 5 1)
    )
    empty frontAndBack 
    (
        (0 3 2 1)
        (4 5 6 7)
    )
);

mergePatchPairs 
(
);

// ************************************************************************* //
