/*--------------------------------*- C++ -*----------------------------------*\
| =========                 |                                                 |
| \\      /  F ield         | OpenFOAM: The Open Source CFD Toolbox           |
|  \\    /   O peration     | Version:  1.5                                   |
|   \\  /    A nd           | Web:      http://www.OpenFOAM.org               |
|    \\/     M anipulation  |                                                 |
\*---------------------------------------------------------------------------*/
FoamFile
{
    version     2.0;
    format      ascii;
    class       dictionary;
    object      controlDict;
}
// * * * * * * * * * * * * * * * * * * * * * * * * * * * * * * * * * * * * * //

libs ( "libinterfaceTrackingFvMesh.so" "libcoupledFvPatchBCs.so" "liblduSolvers.so");
  
applicationClass multiRegionFoam;

startFrom latestTime;

startTime 0;

stopAt endTime;

endTime 4.5;

deltaT 1e-4;

writeControl timeStep;//runTime;//

writeInterval 10;//0.01;//

cycleWrite 0; 

writeFormat ascii;

writePrecision 16;

writeCompression uncompressed;

timeFormat general;

timePrecision 12;

runTimeModifiable yes;

adjustTimeStep no;

maxCo 0.1; 

maxDeltaT 1e-04;

minDeltaT 1e-07; 	

/*
functions
{
    testing
    {
        type writeObjects;
        functionObjectLibs ( "libutilityFunctionObjects.so" );
        objectNames ("bananas");
        outputControl     outputTime;
    }
}
*/
// ************************************************************************* //
