/*--------------------------------*- C++ -*----------------------------------*\
| =========                 |                                                 |
| \\      /  F ield         | foam-extend: Open Source CFD                    |
|  \\    /   O peration     | Version:     4.1                                |
|   \\  /    A nd           | Web:         http://www.foam-extend.org         |
|    \\/     M anipulation  |                                                 |
\*---------------------------------------------------------------------------*/
FoamFile
{
    version     2.0;
    format      ascii;
    class       polyBoundaryMesh;
    location    "constant/polyMesh";
    object      boundary;
}
// * * * * * * * * * * * * * * * * * * * * * * * * * * * * * * * * * * * * * //

4
(
    fuel
    {
        type            patch;
        nFaces          2;
        startFace       4;
    }
    air
    {
        type            patch;
        nFaces          2;
        startFace       6;
    }
    outlet
    {
        type            patch;
        nFaces          4;
        startFace       8;
    }
    frontAndBack
    {
        type            empty;
        nFaces          8;
        startFace       12;
    }
)


// ************************************************************************* //
