/*--------------------------------*- C++ -*----------------------------------*\
| =========                 |                                                 |
| \\      /  F ield         | foam-extend: Open Source CFD                    |
|  \\    /   O peration     | Version:     4.1                                |
|   \\  /    A nd           | Web:         http://www.extend-project.de       |
|    \\/     M anipulation  |                                                 |
\*---------------------------------------------------------------------------*/

FoamFile
{
    version         2.0;
    format          ascii;
    class           dictionary;
    object          transportProperties;
}

// * * * * * * * * * * * * * * * * * * * * * * * * * * * * * * * * * * * * * //


// Thermal conductivity - Dimensions: W/m-K
k            	k   [1 1 -3 -1 0 0 0] 0.3;

// Heat capacity - Dimensions: J/kg-K
cv		cv   [0 2 -2 -1 0 0 0] 800;

// Density membrane - Dimensions: kg/m³
rho		rho   [1 -3 0 0 0 0 0] 1970;

// ************************************************************************* //
