/*--------------------------------*- C++ -*----------------------------------*\
| =========                 |                                                 |
| \\      /  F ield         | foam-extend: Open Source CFD                    |
|  \\    /   O peration     | Version:     3.1                                |
|   \\  /    A nd           | Web:         http://www.extend-project.de       |
|    \\/     M anipulation  |                                                 |
\*---------------------------------------------------------------------------*/
FoamFile
{
    version     2.0;
    format      ascii;
    class       dictionary;
    location    "system";
    object      faSolution;
}
// * * * * * * * * * * * * * * * * * * * * * * * * * * * * * * * * * * * * * //

solvers
{
    Cs
    {
        solver          PBiCG;
        preconditioner  DILU;
        minIter         2;
        maxIter         2000;
        tolerance       1e-12;
        relTol          0;
    }

    Ks
    {
        solver          GMRES;
        nDirections     6;
        preconditioner  Cholesky;
        tolerance       1e-08;
        relTol          1e-04;
        minIter         2;
        maxIter         50;
/*        solver          BiCGStab;*/
/*        preconditioner  DILU;*/
/*        minIter         2;*/
/*        maxIter         2000;*/
/*        tolerance       1e-12;*/
/*        relTol          0;*/
    }
}

// ************************************************************************* //
