/*--------------------------------*- C++ -*----------------------------------*\
| =========                 |                                                 |
| \\      /  F ield         | OpenFOAM: The Open Source CFD Toolbox           |
|  \\    /   O peration     | Version:  1.5                                   |
|   \\  /    A nd           | Web:      http://www.OpenFOAM.org               |
|    \\/     M anipulation  |                                                 |
\*---------------------------------------------------------------------------*/
FoamFile
{
    version     2.0;
    format      ascii;
    class       dictionary;
    object      fvSolution;
}
// * * * * * * * * * * * * * * * * * * * * * * * * * * * * * * * * * * * * * //

solvers
{
    T
    {
        solver          PCG;
        preconditioner  DIC;
        tolerance       1e-15;
        relTol          0;
        minIter         2;
        maxIter         50;
    };
}

SIMPLE
{
    nNonOrthogonalCorrectors 0;
}

relaxationFactors
{
	T	1.0;
}



// ************************************************************************* //
