/*--------------------------------*- C++ -*----------------------------------*\
| =========                 |                                                 |
| \\      /  F ield         | OpenFOAM: The Open Source CFD Toolbox           |
|  \\    /   O peration     | Version:  1.5                                   |
|   \\  /    A nd           | Web:      http://www.OpenFOAM.org               |
|    \\/     M anipulation  |                                                 |
\*---------------------------------------------------------------------------*/
FoamFile
{
    version     2.0;
    format      ascii;
    class       dictionary;
    object      regionInterfaceProperties;
}
// * * * * * * * * * * * * * * * * * * * * * * * * * * * * * * * * * * * * * //

regionInterfaceType defaultInterface;

fluidfluid_to_solidsolidsolid_to_fluid
{}

curvatureCorrectedSurfacePatches 0();

interpolatorUpdateFrequency 1;

interfaceTransferMethod directMap;

directMapCoeffs
{}

GGICoeffs
{}

// ************************************************************************* //
