/*--------------------------------*- C++ -*----------------------------------*\
| =========                 |                                                 |
| \\      /  F ield         | OpenFOAM: The Open Source CFD Toolbox           |
|  \\    /   O peration     | Version:  1.5                                   |
|   \\  /    A nd           | Web:      http://www.OpenFOAM.org               |
|    \\/     M anipulation  |                                                 |
\*---------------------------------------------------------------------------*/
FoamFile
{
    version     2.0;
    format      ascii;
    class       dictionary;
    object      controlDict;
}
// * * * * * * * * * * * * * * * * * * * * * * * * * * * * * * * * * * * * * //

libs ( "libscalePatchPhi.so" "libinterfaceTrackingFvMesh.so" "libcoupledFvPatchBCs.so" "liblduSolvers.so");
  
applicationClass multiRegionFoam;

startFrom latestTime;

startTime 0;

stopAt endTime;

endTime 1;

deltaT 5e-6;

writeControl timeStep;//runTime;//

writeInterval 5;//0.01;//

cycleWrite 0; 

writeFormat ascii;

writePrecision 16;

writeCompression uncompressed;

timeFormat general;

timePrecision 12;

runTimeModifiable yes;

adjustTimeStep no;

maxCo 0.3; 

maxDeltaT 1e-05;

minDeltaT 1e-07;

//OptimisationSwitches
//{
//        commsType       blocking;
//}

/*functions*/
/*{*/
/*    scalePatchPhi*/
/*    {*/
/*        type           scalePatchPhi;*/
/*        regionName     fluidA;*/
/*        scalePatch     space;*/
/*    }*/
/*}*/

/*
functions
{
    testing
    {
        type writeObjects;
        functionObjectLibs ( "libutilityFunctionObjects.so" );
        objectNames ("bananas");
        outputControl     outputTime;
    }
}
*/
// ************************************************************************* //
