/*--------------------------------*- C++ -*----------------------------------*\
| =========                 |                                                 |
| \\      /  F ield         | OpenFOAM Extend Project: Open Source CFD        |
|  \\    /   O peration     | Version:  1.6-ext                               |
|   \\  /    A nd           | Web:      www.extend-project.de                 |
|    \\/     M anipulation  |                                                 |
\*---------------------------------------------------------------------------*/
FoamFile
{
    version     2.0;
    format      ascii;
    class       dictionary;
    location    "system";
    object      tetFemSolution;
}
// * * * * * * * * * * * * * * * * * * * * * * * * * * * * * * * * * * * * * //

solvers
{
    motionU
    {
        solver          PCG;
        preconditioner  DIC;
        tolerance       1e-08;//
        relTol          0;//1e-05;//
/*        solver          GMRES;*/
/*        nDirections     6;*/
/*        preconditioner  Cholesky;*/
/*        tolerance       1e-06;*/
/*        relTol          0;*/
/*        minIter         1;*/
/*        maxIter         200;*/
    };
}

// ************************************************************************* //
