/*--------------------------------*- C++ -*----------------------------------*\
| =========                 |                                                 |
| \\      /  F ield         | OpenFOAM: The Open Source CFD Toolbox           |
|  \\    /   O peration     | Version:  1.5                                   |
|   \\  /    A nd           | Web:      http://www.openfoam.org               |
|    \\/     M anipulation  |                                                 |
\*---------------------------------------------------------------------------*/
FoamFile
{
    version         2.0;
    format          ascii;
    class           dictionary;
    object          fvSolution;
}

// * * * * * * * * * * * * * * * * * * * * * * * * * * * * * * * * * * * * * //

solvers
{
    T1
    {
        solver           PBiCGStab;
        preconditioner   DILU;
        tolerance        1e-6;
        relTol           0;
    }

    T2
    {
        solver           PBiCGStab;
        preconditioner   DILU;
        tolerance        1e-6;
        relTol           0;
    }

    T
    {
        solver           PBiCGStab;
        preconditioner   DILU;
        tolerance        1e-11;
        relTol           0;
    }
}

PIMPLE
{
//     momentumPredictor yes;
    nOuterCorrectors 1;
    nCorrectors      3;
    nNonOrthogonalCorrectors 0;
//     pRefCell        0;
//     pRefValue       0;

//     faceMomentum     off;
}

relaxationFactors
{
    T               0.99;
}


// ************************************************************************* //
