/*--------------------------------*- C++ -*----------------------------------*\
| =========                 |                                                 |
| \\      /  F ield         | OpenFOAM: The Open Source CFD Toolbox           |
|  \\    /   O peration     | Version:  1.5                                   |
|   \\  /    A nd           | Web:      http://www.OpenFOAM.org               |
|    \\/     M anipulation  |                                                 |
\*---------------------------------------------------------------------------*/
FoamFile
{
    version     2.0;
    format      ascii;
    class       dictionary;
    object      blockMeshDict;
}
// * * * * * * * * * * * * * * * * * * * * * * * * * * * * * * * * * * * * * //

convertToMeters 1.0;

vertices        
(
    (0 0.05 0)
    (1 0.05 0)
    (1 0.1 0)
    (0 0.1 0)
    (0 0.05 1e-2)
    (1 0.05 1e-2)
    (1 0.1 1e-2)
    (0 0.1 1e-2)
);

blocks          
(
    hex (0 1 2 3 4 5 6 7) (150 25 1) simpleGrading (6 15 1)
);

edges           
(
);

boundary         
(
    topFluid
    {
        type wall;

        faces
        (
            (3 7 6 2)
        );
    }
    bottomFluid
    {
        type regionCouple;

        shadowRegion    solid;
        shadowPatch     topSolid;
        attached        off;
        isWall          on;
        zone            bottomZoneFluid;
        master          on;
        bridgeOverlap   off;

        faces
        (
            (1 5 4 0)
        );
    }
    leftFluid
    {
        type wall;
        faces
        (
            (0 4 7 3)
        );
    }
    rightFluid
    {
        type wall;

        faces
        (
            (2 6 5 1)
        );
    }
    frontAndBackFluid 
    {
        type empty;

        faces
        (
            (0 3 2 1)
            (4 5 6 7)
        );
    }
)

mergePatchPairs 
(
);

// ************************************************************************* //
